Version 4
SHEET 1 1204 680
WIRE 240 -320 -112 -320
WIRE 1088 -320 240 -320
WIRE 240 -304 240 -320
WIRE 240 -192 240 -224
WIRE 560 -176 400 -176
WIRE 960 -176 624 -176
WIRE -208 -64 -320 -64
WIRE -32 -64 -208 -64
WIRE 80 -64 -32 -64
WIRE 512 -64 368 -64
WIRE 544 -64 512 -64
WIRE 688 -64 624 -64
WIRE 752 -64 688 -64
WIRE 864 -64 832 -64
WIRE 912 -64 864 -64
WIRE 960 -64 960 -176
WIRE 960 -64 912 -64
WIRE 1008 -64 960 -64
WIRE 1088 -64 1088 -320
WIRE 1088 -64 1008 -64
WIRE -320 -48 -320 -64
WIRE 912 -48 912 -64
WIRE 1008 -48 1008 -64
WIRE 1088 -48 1088 -64
WIRE -208 -32 -208 -64
WIRE -32 32 -32 16
WIRE 64 32 -32 32
WIRE 80 32 64 32
WIRE 400 32 400 -176
WIRE 400 32 368 32
WIRE 416 32 400 32
WIRE 512 32 512 -64
WIRE 512 32 480 32
WIRE 544 32 512 32
WIRE 624 32 608 32
WIRE -32 48 -32 32
WIRE 912 48 912 16
WIRE 1008 48 1008 16
WIRE 1008 48 912 48
WIRE 1088 48 1088 16
WIRE 1088 48 1008 48
WIRE -320 80 -320 32
WIRE -208 80 -208 32
WIRE 624 80 624 32
WIRE 1008 80 1008 48
WIRE 64 128 64 32
WIRE 80 128 64 128
WIRE 688 128 688 -64
WIRE 688 128 368 128
WIRE 752 128 688 128
WIRE 864 128 864 -64
WIRE 864 128 832 128
WIRE -32 144 -32 128
WIRE -112 224 -112 -320
WIRE -64 224 -112 224
WIRE 80 224 16 224
WIRE 544 224 368 224
WIRE 864 224 864 128
WIRE 864 224 544 224
WIRE 544 304 544 224
WIRE -112 320 -112 224
WIRE -64 320 -112 320
WIRE 80 320 16 320
WIRE 80 416 -32 416
WIRE 416 416 368 416
WIRE 544 416 544 384
WIRE 544 416 496 416
WIRE -32 464 -32 416
WIRE 544 464 544 416
WIRE -32 576 -32 528
WIRE 224 576 224 464
WIRE 224 576 -32 576
WIRE 544 576 544 544
WIRE 544 576 224 576
WIRE 224 592 224 576
FLAG 224 592 0
FLAG -208 80 0
FLAG 1008 80 0
FLAG -320 -64 IN
FLAG 912 -64 OUT
FLAG -32 144 0
FLAG 624 80 0
FLAG 240 -192 0
FLAG -320 80 0
SYMBOL PowerProducts\\LT3652 224 176 R0
SYMATTR InstName U1
SYMBOL voltage -320 -64 R0
WINDOW 123 0 0 Left 0
WINDOW 39 0 0 Left 0
SYMATTR InstName V1
SYMATTR Value 12
SYMBOL ind 528 -48 R270
WINDOW 0 32 56 VTop 2
WINDOW 3 5 56 VBottom 2
SYMATTR InstName L1
SYMATTR Value 68µ
SYMATTR SpiceLine Rpar=10K
SYMBOL res 736 -48 R270
WINDOW 0 32 56 VTop 2
WINDOW 3 0 56 VBottom 2
SYMATTR InstName R1
SYMATTR Value 0.22
SYMBOL cap 896 -48 R0
SYMATTR InstName C2
SYMATTR Value 10µ
SYMBOL cap 480 16 R90
WINDOW 0 0 32 VBottom 2
WINDOW 3 32 32 VTop 2
SYMATTR InstName C5
SYMATTR Value 1µ
SYMBOL res -48 -80 R0
SYMATTR InstName R7
SYMATTR Value 5k
SYMBOL res -48 32 R0
SYMATTR InstName R8
SYMATTR Value 2.8k
SYMBOL cap -224 -32 R0
SYMATTR InstName C1
SYMATTR Value 10µ
SYMBOL cap -48 464 R0
SYMATTR InstName C6
SYMATTR Value 1µ
SYMBOL res 512 400 R90
WINDOW 0 0 56 VBottom 2
WINDOW 3 32 56 VTop 2
SYMATTR InstName R6
SYMATTR Value 220k
SYMBOL res 560 560 R180
WINDOW 0 36 76 Left 2
WINDOW 3 36 40 Left 2
SYMATTR InstName R3
SYMATTR Value 220k
SYMBOL res 560 400 R180
WINDOW 0 36 76 Left 2
WINDOW 3 36 40 Left 2
SYMATTR InstName R2
SYMATTR Value 47k
SYMBOL schottky 608 16 R90
WINDOW 0 0 32 VBottom 2
WINDOW 3 32 32 VTop 2
SYMATTR InstName D1
SYMATTR Value ZLLS500TA
SYMATTR Description Diode
SYMATTR Type diode
SYMBOL schottky 624 -192 R90
WINDOW 0 0 32 VBottom 2
WINDOW 3 32 32 VTop 2
SYMATTR InstName D2
SYMATTR Value ZLLS500TA
SYMATTR Description Diode
SYMATTR Type diode
SYMBOL res 848 112 R90
WINDOW 0 0 56 VBottom 2
WINDOW 3 32 56 VTop 2
SYMATTR InstName R9
SYMATTR Value 0
SYMBOL res 32 208 R90
WINDOW 0 0 56 VBottom 2
WINDOW 3 32 56 VTop 2
SYMATTR InstName R4
SYMATTR Value 10k
SYMBOL res 32 304 R90
WINDOW 0 0 56 VBottom 2
WINDOW 3 32 56 VTop 2
SYMATTR InstName R5
SYMATTR Value 10k
SYMBOL res 256 -208 R180
WINDOW 0 -53 138 Left 2
WINDOW 3 36 40 Left 2
SYMATTR InstName System_Load
SYMBOL polcap 992 -48 R0
WINDOW 3 24 56 Left 2
SYMATTR Value 47µ
SYMATTR InstName C3
SYMATTR Description Capacitor
SYMATTR Type cap
SYMATTR SpiceLine V=20 Irms=2 Rser=0.045 Lser=0 mfg="KEMET" pn="T521W476M020ATE045" type="Tantalum"
SYMBOL polcap 1072 -48 R0
WINDOW 3 24 56 Left 2
SYMATTR Value 47µ
SYMATTR InstName C4
SYMATTR Description Capacitor
SYMATTR Type cap
SYMATTR SpiceLine V=20 Irms=2 Rser=0.045 Lser=0 mfg="KEMET" pn="T521W476M020ATE045" type="Tantalum"
TEXT 600 456 Left 2 !.tran 3m startup
